ID BAR,NONZERO I12
SOL 1
CEND
TITLE = 1 BAR WITH END LOADS AND WITH NONZERO I12
LOAD  = 1
DISP(plot)    = ALL
ECHO          = UNSORT
ELFORCE(plot) = ALL
GPFORCE(plot) = ALL
MPCFORCE      = ALL
OLOAD(plot)   = ALL
SPCFORCE(plot)  = ALL
STRESS(plot)    = ALL
ELDATA(4,PRINT) = ALL
ELDATA(5,PRINT) = ALL
BEGIN BULK
$
grid    101             0.      0.      0.              123456
$
grid    201             10.     0.      0.              14
$
CBAR    11      10      101     201     0.      1.      0.

$      pid, mid, group, type
PBARL, 10, 20, , TUBE
$cat
,1.0,0.9,0.0
$
MAT1    20      1.E+7   4.+6            .1      1.
$
LOAD    1        1.0     2.0     11      3.0     12
FORCE   11       201             1.      0.      3.     -6. 

MOMENT  12       201             1.      0.      2.      3.  
$
PARAM   SOLLIB   IntMKL
PARAM   GRDPNT   0
PARAM   POST     -1
$
DEBUG   192     2                                                       GPFO summary
DEBUG   200     1                                                       ANS
$
ENDDATA
